data/radial_test/case70da.m
function mpc = case70da
%CASE70DA

%% MATPOWER Case Format : Version 2
mpc.version = '2';

%%-----  Power Flow Data  -----%%
%% system MVA base
mpc.baseMVA = 1;

%% bus data
%	bus_i	type	Pd	Qd	Gs	Bs	area	Vm	Va	baseKV	zone	Vmax	Vmin
mpc.bus = [
	1	3	0	0	0	0	1	1	0	11	1	1	1;
	2	1	0.12	0.108	0	0	1	1	0	11	1	1.1	0.9;
	3	1	0.072	0.048	0	0	1	1	0	11	1	1.1	0.9;
	4	1	0.18	0.156	0	0	1	1	0	11	1	1.1	0.9;
	5	1	0.09	0.06	0	0	1	1	0	11	1	1.1	0.9;
	6	1	0.0216	0.013	0	0	1	1	0	11	1	1.1	0.9;
	7	1	0.0216	0.017	0	0	1	1	0	11	1	1.1	0.9;
	8	1	0.0156	0.012	0	0	1	1	0	11	1	1.1	0.9;
	9	1	0.019	0.013	0	0	1	1	0	11	1	1.1	0.9;
	10	1	0.024	0.012	0	0	1	1	0	11	1	1.1	0.9;
	11	1	0.0192	0.011	0	0	1	1	0	11	1	1.1	0.9;
	12	1	0.06	0.048	0	0	1	1	0	11	1	1.1	0.9;
	13	1	0.126	0.108	0	0	1	1	0	11	1	1.1	0.9;
	14	1	0.03	0.018	0	0	1	1	0	11	1	1.1	0.9;
	15	1	0.048	0.03	0	0	1	1	0	11	1	1.1	0.9;
	16	1	0.072	0.036	0	0	1	1	0	11	1	1.1	0.9;
	17	1	0.048	0.03	0	0	1	1	0	11	1	1.1	0.9;
	18	1	0.018	0.011	0	0	1	1	0	11	1	1.1	0.9;
	19	1	0.0156	0.0084	0	0	1	1	0	11	1	1.1	0.9;
	20	1	0.036	0.024	0	0	1	1	0	11	1	1.1	0.9;
	21	1	0.108	0.06	0	0	1	1	0	11	1	1.1	0.9;
	22	1	0.06	0.036	0	0	1	1	0	11	1	1.1	0.9;
	23	1	0.072	0.048	0	0	1	1	0	11	1	1.1	0.9;
	24	1	0.12	0.096	0	0	1	1	0	11	1	1.1	0.9;
	25	1	0.096	0.078	0	0	1	1	0	11	1	1.1	0.9;
	26	1	0.12	0.072	0	0	1	1	0	11	1	1.1	0.9;
	27	1	0.12	0.066	0	0	1	1	0	11	1	1.1	0.9;
	28	1	0.144	0.084	0	0	1	1	0	11	1	1.1	0.9;
	29	1	0.126	0.084	0	0	1	1	0	11	1	1.1	0.9;
	30	1	0.096	0.06	0	0	1	1	0	11	1	1.1	0.9;
	31	1	0.072	0.048	0	0	1	1	0	11	1	1.1	0.9;
	32	1	0.0156	0.0096	0	0	1	1	0	11	1	1.1	0.9;
	33	1	0.0192	0.0118	0	0	1	1	0	11	1	1.1	0.9;
	34	1	0.06	0.036	0	0	1	1	0	11	1	1.1	0.9;
	35	1	0.048	0.0336	0	0	1	1	0	11	1	1.1	0.9;
	36	1	0.072	0.048	0	0	1	1	0	11	1	1.1	0.9;
	37	1	0.048	0.036	0	0	1	1	0	11	1	1.1	0.9;
	38	1	0.036	0.03	0	0	1	1	0	11	1	1.1	0.9;
	39	1	0.18	0.12	0	0	1	1	0	11	1	1.1	0.9;
	40	1	0.072	0.042	0	0	1	1	0	11	1	1.1	0.9;
	41	1	0.144	0.084	0	0	1	1	0	11	1	1.1	0.9;
	42	1	0.108	0.072	0	0	1	1	0	11	1	1.1	0.9;
	43	1	0.0216	0.012	0	0	1	1	0	11	1	1.1	0.9;
	44	1	0.0192	0.012	0	0	1	1	0	11	1	1.1	0.9;
	45	1	0.12	0.06	0	0	1	1	0	11	1	1.1	0.9;
	46	1	0.072	0.048	0	0	1	1	0	11	1	1.1	0.9;
	47	1	0.108	0.084	0	0	1	1	0	11	1	1.1	0.9;
	48	1	0.1224	0.0792	0	0	1	1	0	11	1	1.1	0.9;
	49	1	0.12	0.084	0	0	1	1	0	11	1	1.1	0.9;
	50	1	0.168	0.108	0	0	1	1	0	11	1	1.1	0.9;
	51	1	0.072	0.048	0	0	1	1	0	11	1	1.1	0.9;
	52	1	0.024	0.0132	0	0	1	1	0	11	1	1.1	0.9;
	53	1	0.048	0.036	0	0	1	1	0	11	1	1.1	0.9;
	54	1	0.0432	0.0288	0	0	1	1	0	11	1	1.1	0.9;
	55	1	0.036	0.024	0	0	1	1	0	11	1	1.1	0.9;
	56	1	0.0516	0.036	0	0	1	1	0	11	1	1.1	0.9;
	57	1	0.096	0.06	0	0	1	1	0	11	1	1.1	0.9;
	58	1	0.288	0.144	0	0	1	1	0	11	1	1.1	0.9;
	59	1	0.15	0.132	0	0	1	1	0	11	1	1.1	0.9;
	60	1	0.03	0.012	0	0	1	1	0	11	1	1.1	0.9;
	61	1	0.012	0.006	0	0	1	1	0	11	1	1.1	0.9;
	62	1	0.18	0.156	0	0	1	1	0	11	1	1.1	0.9;
	63	1	0.06	0.036	0	0	1	1	0	11	1	1.1	0.9;
	64	1	0.036	0.024	0	0	1	1	0	11	1	1.1	0.9;
	65	1	0.156	0.144	0	0	1	1	0	11	1	1.1	0.9;
	66	1	0.18	0.156	0	0	1	1	0	11	1	1.1	0.9;
	67	1	0.03	0.018	0	0	1	1	0	11	1	1.1	0.9;
	68	1	0.12	0.072	0	0	1	1	0	11	1	1.1	0.9;
	69	1	0.048	0.036	0	0	1	1	0	11	1	1.1	0.9;
	70	3	0	0	0	0	1	1	0	11	1	1	1;
];

%% generator data
%	bus	Pg	Qg	Qmax	Qmin	Vg	mBase	status	Pmax	Pmin	Pc1	Pc2	Qc1min	Qc1max	Qc2min	Qc2max	ramp_agc	ramp_10	ramp_30	ramp_q	apf
mpc.gen = [
	1	0	0	10	-10	1	100	1	10	0	0	0	0	0	0	0	0	0	0	0	0;
	70	0	0	10	-10	1	100	1	10	0	0	0	0	0	0	0	0	0	0	0	0;
];

%% branch data
%	fbus	tbus	r	x	b	rateA	rateB	rateC	ratio	angle	status	angmin	angmax
mpc.branch = [
	1	2	0.0090661157	0.00887603306	0	0	0	0	0	0	1	-360	360;
	2	3	0.0120909091	0.0118347107	0	0	0	0	0	0	1	-360	360;
	3	4	0.00604132231	0.00591735537	0	0	0	0	0	0	1	-360	360;
	4	5	0.00302479339	0.00295867769	0	0	0	0	0	0	1	-360	360;
	5	6	0.015107438	0.0147933884	0	0	0	0	0	0	1	-360	360;
	6	7	0.0090661157	0.00887603306	0	0	0	0	0	0	1	-360	360;
	7	8	0.00604132231	0.00591735537	0	0	0	0	0	0	1	-360	360;
	8	9	0.00604132231	0.00591735537	0	0	0	0	0	0	1	-360	360;
	4	10	0.00892561983	0.0060661157	0	0	0	0	0	0	1	-360	360;
	10	11	0.0133884298	0.00909917355	0	0	0	0	0	0	1	-360	360;
	11	12	0.00892561983	0.0060661157	0	0	0	0	0	0	1	-360	360;
	12	13	0.0111570248	0.0075785124	0	0	0	0	0	0	1	-360	360;
	13	14	0.00669421488	0.00454545455	0	0	0	0	0	0	1	-360	360;
	14	15	0.0160661157	0.0109173554	0	0	0	0	0	0	1	-360	360;
	7	68	0.00892561983	0.0060661157	0	0	0	0	0	0	1	-360	360;
	68	69	0.0133884298	0.00909917355	0	0	0	0	0	0	1	-360	360;
	1	16	0.0090661157	0.00887603306	0	0	0	0	0	0	1	-360	360;
	16	17	0.00302479339	0.00295867769	0	0	0	0	0	0	1	-360	360;
	17	18	0.0120909091	0.0118347107	0	0	0	0	0	0	1	-360	360;
	18	19	0.00755371901	0.00739669421	0	0	0	0	0	0	1	-360	360;
	19	20	0.0066446281	0.00650413223	0	0	0	0	0	0	1	-360	360;
	20	21	0.00936363636	0.00917355372	0	0	0	0	0	0	1	-360	360;
	21	22	0.00392561983	0.00384297521	0	0	0	0	0	0	1	-360	360;
	17	23	0.0182975207	0.0124380165	0	0	0	0	0	0	1	-360	360;
	23	24	0.0133884298	0.00917355372	0	0	0	0	0	0	1	-360	360;
	24	25	0.00892561983	0.0060661157	0	0	0	0	0	0	1	-360	360;
	25	26	0.00446280992	0.00303305785	0	0	0	0	0	0	1	-360	360;
	26	27	0.00446280992	0.00303305785	0	0	0	0	0	0	1	-360	360;
	27	28	0.00892561983	0.0060661157	0	0	0	0	0	0	1	-360	360;
	28	29	0.00892561983	0.0060661157	0	0	0	0	0	0	1	-360	360;
	70	30	0.00302479339	0.00295867769	0	0	0	0	0	0	1	-360	360;
	30	31	0.00604132231	0.00591735537	0	0	0	0	0	0	1	-360	360;
	31	32	0.00604132231	0.00591735537	0	0	0	0	0	0	1	-360	360;
	32	33	0.0066446281	0.00650413223	0	0	0	0	0	0	1	-360	360;
	33	34	0.00966942149	0.00946280992	0	0	0	0	0	0	1	-360	360;
	34	35	0.00634710744	0.00621487603	0	0	0	0	0	0	1	-360	360;
	35	36	0.00604132231	0.00591735537	0	0	0	0	0	0	1	-360	360;
	36	37	0.0090661157	0.00887603306	0	0	0	0	0	0	1	-360	360;
	37	38	0.0120909091	0.0118347107	0	0	0	0	0	0	1	-360	360;
	32	39	0.00892561983	0.0060661157	0	0	0	0	0	0	1	-360	360;
	39	40	0.00446280992	0.00303305785	0	0	0	0	0	0	1	-360	360;
	40	41	0.00892561983	0.0060661157	0	0	0	0	0	0	1	-360	360;
	41	42	0.0151735537	0.0103140496	0	0	0	0	0	0	1	-360	360;
	42	43	0.0107107438	0.00728099174	0	0	0	0	0	0	1	-360	360;
	40	44	0.00981818182	0.00666942149	0	0	0	0	0	0	1	-360	360;
	44	45	0.00446280992	0.00303305785	0	0	0	0	0	0	1	-360	360;
	42	46	0.00892561983	0.0060661157	0	0	0	0	0	0	1	-360	360;
	35	47	0.00446280992	0.00303305785	0	0	0	0	0	0	1	-360	360;
	47	48	0.00892561983	0.0060661157	0	0	0	0	0	0	1	-360	360;
	48	49	0.00892561983	0.0060661157	0	0	0	0	0	0	1	-360	360;
	49	50	0.00892561983	0.0060661157	0	0	0	0	0	0	1	-360	360;
	70	51	0.00302479339	0.00295867769	0	0	0	0	0	0	1	-360	360;
	51	52	0.0120909091	0.0118347107	0	0	0	0	0	0	1	-360	360;
	52	53	0.0120909091	0.0118347107	0	0	0	0	0	0	1	-360	360;
	53	54	0.00755371901	0.00739669421	0	0	0	0	0	0	1	-360	360;
	54	55	0.0090661157	0.00887603306	0	0	0	0	0	0	1	-360	360;
	55	56	0.0090661157	0.00887603306	0	0	0	0	0	0	1	-360	360;
	52	57	0.00223140496	0.00151239669	0	0	0	0	0	0	1	-360	360;
	57	58	0.00223140496	0.00151239669	0	0	0	0	0	0	1	-360	360;
	58	59	0.00669421488	0.00454545455	0	0	0	0	0	0	1	-360	360;
	59	60	0.0107107438	0.00728099174	0	0	0	0	0	0	1	-360	360;
	55	61	0.00981818182	0.00666942149	0	0	0	0	0	0	1	-360	360;
	61	62	0.00981818182	0.00666942149	0	0	0	0	0	0	1	-360	360;
	62	63	0.00669421488	0.00454545455	0	0	0	0	0	0	1	-360	360;
	63	64	0.0133884298	0.00909917355	0	0	0	0	0	0	1	-360	360;
	62	65	0.00892561983	0.0060661157	0	0	0	0	0	0	1	-360	360;
	65	66	0.00446280992	0.00303305785	0	0	0	0	0	0	1	-360	360;
	66	67	0.00892561983	0.0060661157	0	0	0	0	0	0	1	-360	360;
	22	67	0.00314876033	0.00202066116	0	0	0	0	0	0	0	-360	360;
	67	15	0.00375206612	0.003	0	0	0	0	0	0	0	-360	360;
	21	27	0.00209917355	0.00167768595	0	0	0	0	0	0	0	-360	360;
	9	50	0.00562809917	0.0045	0	0	0	0	0	0	0	-360	360;
	29	64	0.00562809917	0.0045	0	0	0	0	0	0	0	-360	360;
	45	60	0.00209917355	0.00167768595	0	0	0	0	0	0	0	-360	360;
	43	38	0.00209917355	0.00167768595	0	0	0	0	0	0	0	-360	360;
	9	15	0.00375206612	0.003	0	0	0	0	0	0	0	-360	360;
];

%%-----  OPF Data  -----%%
%% generator cost data
%	1	startup	shutdown	n	x1	y1	...	xn	yn
%	2	startup	shutdown	n	c(n-1)	...	c0
mpc.gencost = [
	2	0	0	3	0	20	0;
	2	0	0	3	0	20	0;
];
